%link=orca
# FREQ
 
0 1
C 	  -3.112620640304	   0.358707033893	  -0.673830749791
C 	  -1.734994403666	   0.319906339512	  -0.780216366830
C 	  -0.942887601449	   1.321699186972	  -0.225738203419
C 	  -1.567335995799	   2.383374702925	   0.439243653643
C 	  -2.952771001959	   2.397371032508	   0.567880559389
C 	  -3.725121532681	   1.396410155915	   0.009292770307
H 	  -3.708425483709	  -0.428724724500	  -1.111337105139
H 	  -1.255835458973	  -0.509728114629	  -1.279291290251
H 	  -3.416091353444	   3.213269775632	   1.103136524523
H 	  -4.799699652047	   1.423713187912	   0.109593257004
C 	   0.523402725389	   1.208253402556	  -0.290073532291
C 	   1.160664562649	   0.872310312568	  -1.482425780355
C 	   1.290931255674	   1.420707409454	   0.850674190895
C 	   2.537857210989	   0.763397265568	  -1.527218761864
H 	   0.574833036876	   0.718281175205	  -2.377082982401
C 	   2.672095943967	   1.303654259854	   0.810619253210
H 	   0.812416554189	   1.656822500706	   1.788439796243
C 	   3.293494447651	   0.974031087137	  -0.386165942679
H 	   3.026931818342	   0.509561851217	  -2.456284140667
H 	   4.369034139209	   0.880836476843	  -0.426905802875
C 	   3.470365563201	   1.548327553026	   2.061677200373
H 	   3.517753556741	   2.634961032836	   2.258319433688
H 	   4.504088916350	   1.187689486241	   1.935119856899
O 	   2.854247154533	   0.894595726781	   3.147365862869
C 	   3.492578431771	   1.142260681685	   4.370204227947
H 	   2.937732672933	   0.592055186438	   5.127174567826
H 	   4.534146088584	   0.794933453943	   4.355794050786
H 	   3.483502218369	   2.212202289693	   4.615856333847
C 	  -0.824553780673	   3.551585326485	   0.998067266282
O 	  -0.952926819683	   3.908992031092	   2.143957007721
C 	  -0.012801338339	   4.330164908855	  -0.009858558029
H 	  -0.710407280276	   4.869948377712	  -0.650367467087
H 	   0.624543841506	   5.048371905234	   0.499385569130
H 	   0.582647004086	   3.673350282765	  -0.636214158943
Options
orcaproc=8
END
