%link=non-supported
# Min
 
0 1
 C                 -3.08176096    0.19916143    0.00000000
 C                 -1.68660096    0.19916143    0.00000000
 C                 -0.98906296    1.40691243    0.00000000
 C                 -1.68671696    2.61542143   -0.00119900
 C                 -3.08154196    2.61534343   -0.00167800
 C                 -3.77914296    1.40713743   -0.00068200
 H                 -3.63151996   -0.75315557    0.00045000
 H                 -1.13709296   -0.75335157    0.00131500
 H                 -3.63166396    3.56762443   -0.00263100
 H                 -4.87874696    1.40732043   -0.00086200
 C                  0.55093678    1.40702446    0.00088786
 C                  1.24915475    1.40661549   -1.20698752
 C                  1.24774583    1.40764598    1.20919448
 C                  2.64386663    1.40614615   -1.20646100
 H                  0.69951081    1.40534830   -2.15942215
 C                  2.64288350    1.40817252    1.20989402
 H                  0.69759951    1.40814827    2.16128050
 C                  3.34100119    1.40728462    0.00234778
 H                  3.19427853    1.40518977   -2.15848113
 H                  4.44068124    1.40697353    0.00251291
 C                  3.41184054    1.40944038    2.54417415
 H                  3.15190279    2.28295314    3.10480578
 H                  4.46397702    1.41059755    2.34947571
 O                  3.06713894    0.24166627    3.29409712
 C                  3.97077778    0.09595342    4.39278024
 H                  3.65286533   -0.71779574    5.01055364
 H                  4.95474178   -0.10129731    4.02155658
 H                  3.98087530    0.99792350    4.96832174
 Frozen Atoms
 C                 -0.91621289    3.94880940   -0.00128162
 O                 -0.65897550    4.54912412    1.12425507
 C                 -0.49448561    4.51153504   -1.21347299
 H                 -1.05512065    5.40201236   -1.40747940
 H                  0.54642189    4.75165539   -1.15220482
 H                 -0.65276009    3.81059065   -2.00626941
Options
NoFc
sublink=grrm2xtb
END
