%link=non-supported
#Min

0 1
 C                 -0.27465668    0.20599251    0.00000000
 H                  0.08199774   -0.80281750    0.00000000
 H                  0.08201616    0.71039070   -0.87365150
 H                 -1.34465668    0.20600569    0.00000000
 C                  0.23868554    0.93194878    1.25740497
 H                 -0.11637081    1.94132187    1.25642745
 H                 -0.11958357    0.42868035    2.13105486
 C                  1.77868293    0.92949243    1.25881364
 H                  2.13535596    1.43421651    2.13227684
 H                  2.13373917   -0.07988027    1.26016738
 C                  2.29432169    1.65335270    0.00114001
 H                  3.27830082    2.03119950    0.18530534
 H                  2.32366855    0.96657026   -0.81884087
 H                  1.63926400    2.46523005   -0.23688226
Options
sublink=grrm2xtb

